#------------------------------------------------------------------
# Heading
#------------------------------------------------------------------
#
wipe
model basic -ndm 3 -ndf 6
#
#
#------------------------------------------------------------------
# Nodes
#------------------------------------------------------------------
#
node 1 0.200 0.000 0.000
node 2 0.080 0.000 0.000
node 3 0.940 0.000 0.000
node 4 0.740 0.000 0.000
node 5 0.990 0.000 0.000
node 6 0.790 0.000 0.000
node 7 0.370 0.000 0.000
node 8 0.980 0.000 0.000
node 9 0.360 0.000 0.000
node 10 0.670 0.000 0.000
node 11 0.350 0.000 0.000
node 12 0.930 0.000 0.000
node 13 0.730 0.000 0.000
node 14 0.000 0.000 0.000
node 15 0.860 0.000 0.000
node 16 0.660 0.000 0.000
node 17 0.340 0.000 0.000
node 18 0.650 0.000 0.000
node 19 0.920 0.000 0.000
node 20 0.910 0.000 0.000
# ... 81 like lines cut
#
#
#
#------------------------------------------------------------------
# Boundary conditions
#------------------------------------------------------------------
#
# disp_left
#----------
#
fix 14 1 1 1 0 0 0
#
# disp_right
#-----------
#
fix 84 0 1 1 1 0 0
#
#
#
#------------------------------------------------------------------
# Materials
#------------------------------------------------------------------
#
# mat_elastic
#------------
#
uniaxialMaterial Elastic 1 20000000000
nDMaterial ElasticIsotropic 1001 20000000000 0.3 1500
#
#
#
#------------------------------------------------------------------
# Elements
#------------------------------------------------------------------
#
# ep_0
#-----
#
geomTransf Corotational 1 0 -1 0
element elasticBeamColumn 1 1 99 0.00182466842913 20000000000 7692307692.31 5.29892835162e-07 2.64946417581e-07 2.64946417581e-07 1
#
#
#
# ep_1
#-----
#
geomTransf Corotational 2 0 -1 0
element elasticBeamColumn 2 2 63 0.00147934456465 20000000000 7692307692.31 3.48304281024e-07 1.74152140512e-07 1.74152140512e-07 2
#
#
#
# ep_10
#------
#
geomTransf Corotational 11 0 -1 0
element elasticBeamColumn 11 11 9 0.00230721706072 20000000000 7692307692.31 8.47221640783e-07 4.23610820391e-07 4.23610820391e-07 11
#
#
#
# ep_11
#------
#
geomTransf Corotational 12 0 -1 0
element elasticBeamColumn 12 12 3 0.00470513190135 20000000000 7692307692.31 3.52341449867e-06 1.76170724934e-06 1.76170724934e-06 12
#
#
#
# ep_12
#------
#
geomTransf Corotational 13 0 -1 0
element elasticBeamColumn 13 13 4 0.00378276029826 20000000000 7692307692.31 2.27739192377e-06 1.13869596188e-06 1.13869596188e-06 13
#
#
#
# ep_13
#------
#
geomTransf Corotational 14 0 -1 0
element elasticBeamColumn 14 14 69 0.00126923484798 20000000000 7692307692.31 2.56391785466e-07 1.28195892733e-07 1.28195892733e-07 14
#
#
#
# ep_14
#------
#
geomTransf Corotational 15 0 -1 0
element elasticBeamColumn 15 15 72 0.00437086644301 20000000000 7692307692.31 3.04057138675e-06 1.52028569337e-06 1.52028569337e-06 15
#
#
#
# ep_15
#------
#
geomTransf Corotational 16 0 -1 0
element elasticBeamColumn 16 16 10 0.00348368067764 20000000000 7692307692.31 1.93150933331e-06 9.65754666657e-07 9.65754666657e-07 16
#
#
#
# ep_16
#------
#
geomTransf Corotational 17 0 -1 0
element elasticBeamColumn 17 17 11 0.00227328786006 20000000000 7692307692.31 8.2248691421e-07 4.11243457105e-07 4.11243457105e-07 17
#
#
#
# ep_17
#------
#
geomTransf Corotational 18 0 -1 0
element elasticBeamColumn 18 18 16 0.0034419603272 20000000000 7692307692.31 1.88552307704e-06 9.42761538521e-07 9.42761538521e-07 18
#
#
#
# ep_18
#------
#
geomTransf Corotational 19 0 -1 0
element elasticBeamColumn 19 19 12 0.00465662571078 20000000000 7692307692.31 3.4511417299e-06 1.72557086495e-06 1.72557086495e-06 19
#
#
#
# ep_19
#------
#
geomTransf Corotational 20 0 -1 0
element elasticBeamColumn 20 20 19 0.00460837084762 20000000000 7692307692.31 3.37998655634e-06 1.68999327817e-06 1.68999327817e-06 20
#
#
#
# ep_2
#-----
#
geomTransf Corotational 3 0 -1 0
element elasticBeamColumn 3 3 62 0.00475388941934 20000000000 7692307692.31 3.59681650412e-06 1.79840825206e-06 1.79840825206e-06 3
#
#
#
# ep_20
#------
#
geomTransf Corotational 21 0 -1 0
element elasticBeamColumn 21 21 13 0.00373928065594 20000000000 7692307692.31 2.22533940036e-06 1.11266970018e-06 1.11266970018e-06 21
#
#
#
# ep_21
#------
#
geomTransf Corotational 22 0 -1 0
element elasticBeamColumn 22 22 21 0.00369605234102 20000000000 7692307692.31 2.17418430934e-06 1.08709215467e-06 1.08709215467e-06 22
#
#
#
# ep_22
#------
#
geomTransf Corotational 23 0 -1 0
element elasticBeamColumn 23 23 77 0.00427762397305 20000000000 7692307692.31 2.91222778898e-06 1.45611389449e-06 1.45611389449e-06 23
#
#
#
# ep_23
#------
#
geomTransf Corotational 24 0 -1 0
element elasticBeamColumn 24 24 18 0.00340049130417 20000000000 7692307692.31 1.84036289627e-06 9.20181448137e-07 9.20181448137e-07 24
#
#
#
# ep_24
#------
#
geomTransf Corotational 25 0 -1 0
element elasticBeamColumn 25 25 26 0.00451261510354 20000000000 7692307692.31 3.24098273044e-06 1.62049136522e-06 1.62049136522e-06 25
#
#
#
# ep_25
#------
#
geomTransf Corotational 26 0 -1 0
element elasticBeamColumn 26 26 20 0.00456036731188 20000000000 7692307692.31 3.3099373968e-06 1.6549686984e-06 1.6549686984e-06 26
#
#
#
# ep_26
#------
#
geomTransf Corotational 27 0 -1 0
element elasticBeamColumn 27 27 94 0.002042820623 20000000000 7692307692.31 6.64172055052e-07 3.32086027526e-07 3.32086027526e-07 27
#
#
#
# ep_27
#------
#
geomTransf Corotational 28 0 -1 0
element elasticBeamColumn 28 28 82 0.00315695504167 20000000000 7692307692.31 1.58619627591e-06 7.93098137955e-07 7.93098137955e-07 28
#
#
#
# ep_28
#------
#
geomTransf Corotational 29 0 -1 0
element elasticBeamColumn 29 29 83 0.00170553923571 20000000000 7692307692.31 4.62960097837e-07 2.31480048918e-07 2.31480048918e-07 29
#
#
#
# ep_29
#------
#
geomTransf Corotational 30 0 -1 0
element elasticBeamColumn 30 30 17 0.00223960998682 20000000000 7692307692.31 7.98297781751e-07 3.99148890876e-07 3.99148890876e-07 30
#
#
#
# ep_3
#-----
#
geomTransf Corotational 4 0 -1 0
element elasticBeamColumn 4 4 101 0.003826491268 20000000000 7692307692.31 2.33035231467e-06 1.16517615733e-06 1.16517615733e-06 4
#
#
#
# ep_30
#------
#
geomTransf Corotational 31 0 -1 0
element elasticBeamColumn 31 31 25 0.00446511422262 20000000000 7692307692.31 3.17311109673e-06 1.58655554837e-06 1.58655554837e-06 31
#
#
#
# ep_31
#------
#
geomTransf Corotational 32 0 -1 0
element elasticBeamColumn 32 32 78 0.00197923478769 20000000000 7692307692.31 6.23468854296e-07 3.11734427148e-07 3.11734427148e-07 32
#
#
#
# ep_32
#------
#
geomTransf Corotational 33 0 -1 0
element elasticBeamColumn 33 33 90 0.00269702587718 20000000000 7692307692.31 1.15768487265e-06 5.78842436325e-07 5.78842436325e-07 33
#
#
#
# ep_33
#------
#
geomTransf Corotational 34 0 -1 0
element elasticBeamColumn 34 34 91 0.00164748260347 20000000000 7692307692.31 4.31978176043e-07 2.15989088021e-07 2.15989088021e-07 34
#
#
#
# ep_34
#------
#
geomTransf Corotational 35 0 -1 0
element elasticBeamColumn 35 35 23 0.00423137972919 20000000000 7692307692.31 2.84960152173e-06 1.42480076086e-06 1.42480076086e-06 35
#
#
#
# ep_35
#------
#
geomTransf Corotational 36 0 -1 0
element elasticBeamColumn 36 36 24 0.00335927360856 20000000000 7692307692.31 1.79601883845e-06 8.98009419223e-07 8.98009419223e-07 36
#
#
#
# ep_36
#------
#
geomTransf Corotational 37 0 -1 0
element elasticBeamColumn 37 37 92 0.002922466566 20000000000 7692307692.31 1.35931226151e-06 6.79656130756e-07 6.79656130756e-07 37
#
#
#
# ep_37
#------
#
geomTransf Corotational 38 0 -1 0
element elasticBeamColumn 38 38 37 0.00288426479933 20000000000 7692307692.31 1.32400733481e-06 6.62003667405e-07 6.62003667405e-07 38
#
#
#
# ep_38
#------
#
geomTransf Corotational 39 0 -1 0
element elasticBeamColumn 39 39 1 0.00179450913966 20000000000 7692307692.31 5.12520782832e-07 2.56260391416e-07 2.56260391416e-07 39
#
#
#
# ep_39
#------
#
geomTransf Corotational 40 0 -1 0
element elasticBeamColumn 40 40 95 0.0026238896002 20000000000 7692307692.31 1.09574941649e-06 5.47874708247e-07 5.47874708247e-07 40
#
#
#
# ep_4
#-----
#
geomTransf Corotational 5 0 -1 0
element elasticBeamColumn 5 5 84 0.00500144692044 20000000000 7692307692.31 3.98117675591e-06 1.99058837795e-06 1.99058837795e-06 5
#
#
#
# ep_40
#------
#
geomTransf Corotational 41 0 -1 0
element elasticBeamColumn 41 41 35 0.00418538681275 20000000000 7692307692.31 2.78799079064e-06 1.39399539532e-06 1.39399539532e-06 41
#
#
#
# ep_41
#------
#
geomTransf Corotational 42 0 -1 0
element elasticBeamColumn 42 42 41 0.00413964522371 20000000000 7692307692.31 2.72738455741e-06 1.36369227871e-06 1.36369227871e-06 42
#
#
#
# ep_42
#------
#
geomTransf Corotational 43 0 -1 0
element elasticBeamColumn 43 43 38 0.00284631436008 20000000000 7692307692.31 1.28939463669e-06 6.44697318344e-07 6.44697318344e-07 43
#
#
#
# ep_43
#------
#
geomTransf Corotational 44 0 -1 0
element elasticBeamColumn 44 44 39 0.00176460117759 20000000000 7692307692.31 4.95579417722e-07 2.47789708861e-07 2.47789708861e-07 44
#
#
#
# ep_44
#------
#
geomTransf Corotational 45 0 -1 0
element elasticBeamColumn 45 45 43 0.00280861524824 20000000000 7692307692.31 1.25546505904e-06 6.27732529519e-07 6.27732529519e-07 45
#
#
#
# ep_45
#------
#
geomTransf Corotational 46 0 -1 0
element elasticBeamColumn 46 46 2 0.00145220120412 20000000000 7692307692.31 3.35640003303e-07 1.67820001651e-07 1.67820001651e-07 46
#
#
#
# ep_46
#------
#
geomTransf Corotational 47 0 -1 0
element elasticBeamColumn 47 47 34 0.00161883127847 20000000000 7692307692.31 4.17083784741e-07 2.0854189237e-07 2.0854189237e-07 47
#
#
#
# ep_47
#------
#
geomTransf Corotational 48 0 -1 0
element elasticBeamColumn 48 48 42 0.00409415496208 20000000000 7692307692.31 2.66777184407e-06 1.33388592203e-06 1.33388592203e-06 48
#
#
#
# ep_48
#------
#
geomTransf Corotational 49 0 -1 0
element elasticBeamColumn 49 49 45 0.00277116746381 20000000000 7692307692.31 1.22220955407e-06 6.11104777037e-07 6.11104777037e-07 49
#
#
#
# ep_49
#------
#
geomTransf Corotational 50 0 -1 0
element elasticBeamColumn 50 50 46 0.00142530917101 20000000000 7692307692.31 3.23324258897e-07 1.61662129449e-07 1.61662129449e-07 50
#
#
#
# ep_5
#-----
#
geomTransf Corotational 6 0 -1 0
element elasticBeamColumn 6 6 48 0.00404891602787 20000000000 7692307692.31 2.60914173294e-06 1.30457086647e-06 1.30457086647e-06 6
#
#
#
# ep_50
#------
#
geomTransf Corotational 51 0 -1 0
element elasticBeamColumn 51 51 50 0.0013986684653 20000000000 7692307692.31 3.11350593719e-07 1.5567529686e-07 1.5567529686e-07 51
#
#
#
# ep_51
#------
#
geomTransf Corotational 52 0 -1 0
element elasticBeamColumn 52 52 47 0.00159043128088 20000000000 7692307692.31 4.02577917973e-07 2.01288958986e-07 2.01288958986e-07 52
#
#
#
# ep_52
#------
#
geomTransf Corotational 53 0 -1 0
element elasticBeamColumn 53 53 40 0.00258769845284 20000000000 7692307692.31 1.06573066931e-06 5.32865334654e-07 5.32865334654e-07 53
#
#
#
# ep_53
#------
#
geomTransf Corotational 54 0 -1 0
element elasticBeamColumn 54 54 52 0.0015622826107 20000000000 7692307692.31 3.88453759738e-07 1.94226879869e-07 1.94226879869e-07 54
#
#
#
# ep_54
#------
#
geomTransf Corotational 55 0 -1 0
element elasticBeamColumn 55 55 8 0.00490166993776 20000000000 7692307692.31 3.8239152602e-06 1.9119576301e-06 1.9119576301e-06 55
#
#
#
# ep_55
#------
#
geomTransf Corotational 56 0 -1 0
element elasticBeamColumn 56 56 51 0.00137227908701 20000000000 7692307692.31 2.99712613999e-07 1.49856307e-07 1.49856307e-07 56
#
#
#
# ep_56
#------
#
geomTransf Corotational 57 0 -1 0
element elasticBeamColumn 57 57 53 0.00255175863288 20000000000 7692307692.31 1.03633297478e-06 5.18166487389e-07 5.18166487389e-07 57
#
#
#
# ep_57
#------
#
geomTransf Corotational 58 0 -1 0
element elasticBeamColumn 58 58 57 0.00251607014033 20000000000 7692307692.31 1.00754770735e-06 5.03773853673e-07 5.03773853673e-07 58
#
#
#
# ep_58
#------
#
geomTransf Corotational 59 0 -1 0
element elasticBeamColumn 59 59 54 0.00153438526794 20000000000 7692307692.31 3.74704554357e-07 1.87352277179e-07 1.87352277179e-07 59
#
#
#
# ep_59
#------
#
geomTransf Corotational 60 0 -1 0
element elasticBeamColumn 60 60 55 0.00485215843754 20000000000 7692307692.31 3.7470550926e-06 1.8735275463e-06 1.8735275463e-06 60
#
#
#
# ep_6
#-----
#
geomTransf Corotational 7 0 -1 0
element elasticBeamColumn 7 7 71 0.00237582944428 20000000000 7692307692.31 8.98360508617e-07 4.49180254309e-07 4.49180254309e-07 7
#
#
#
# ep_60
#------
#
geomTransf Corotational 61 0 -1 0
element elasticBeamColumn 61 61 6 0.00400392842107 20000000000 7692307692.31 2.55148336669e-06 1.27574168334e-06 1.27574168334e-06 61
#
#
#
# ep_61
#------
#
geomTransf Corotational 62 0 -1 0
element elasticBeamColumn 62 62 60 0.00480289826473 20000000000 7692307692.31 3.67135944805e-06 1.83567972403e-06 1.83567972403e-06 62
#
#
#
# ep_62
#------
#
geomTransf Corotational 63 0 -1 0
element elasticBeamColumn 63 63 59 0.00150673925259 20000000000 7692307692.31 3.61323606467e-07 1.80661803233e-07 1.80661803233e-07 63
#
#
#
# ep_63
#------
#
geomTransf Corotational 64 0 -1 0
element elasticBeamColumn 64 64 58 0.0024806329752 20000000000 7692307692.31 9.79366301774e-07 4.89683150887e-07 4.89683150887e-07 64
#
#
#
# ep_64
#------
#
geomTransf Corotational 65 0 -1 0
element elasticBeamColumn 65 65 56 0.00134614103614 20000000000 7692307692.31 2.88403986287e-07 1.44201993144e-07 1.44201993144e-07 65
#
#
#
# ep_65
#------
#
geomTransf Corotational 66 0 -1 0
element elasticBeamColumn 66 66 64 0.00244544713748 20000000000 7692307692.31 9.51780253143e-07 4.75890126572e-07 4.75890126572e-07 66
#
#
#
# ep_66
#------
#
geomTransf Corotational 67 0 -1 0
element elasticBeamColumn 67 67 28 0.00311724531052 20000000000 7692307692.31 1.54654332968e-06 7.73271664842e-07 7.73271664842e-07 67
#
#
#
# ep_67
#------
#
geomTransf Corotational 68 0 -1 0
element elasticBeamColumn 68 68 65 0.00132025431267 20000000000 7692307692.31 2.7741843745e-07 1.38709218725e-07 1.38709218725e-07 68
#
#
#
# ep_68
#------
#
geomTransf Corotational 69 0 -1 0
element elasticBeamColumn 69 69 68 0.00129461891662 20000000000 7692307692.31 2.66749754675e-07 1.33374877337e-07 1.33374877337e-07 69
#
#
#
# ep_69
#------
#
geomTransf Corotational 70 0 -1 0
element elasticBeamColumn 70 70 22 0.00365307535352 20000000000 7692307692.31 2.12391627591e-06 1.06195813796e-06 1.06195813796e-06 70
#
#
#
# ep_7
#-----
#
geomTransf Corotational 8 0 -1 0
element elasticBeamColumn 8 8 5 0.0049514327654 20000000000 7692307692.31 3.90195183361e-06 1.9509759168e-06 1.9509759168e-06 8
#
#
#
# ep_70
#------
#
geomTransf Corotational 71 0 -1 0
element elasticBeamColumn 71 71 66 0.00241051262717 20000000000 7692307692.31 9.24781116852e-07 4.62390558426e-07 4.62390558426e-07 71
#
#
#
# ep_71
#------
#
geomTransf Corotational 72 0 -1 0
element elasticBeamColumn 72 72 31 0.00441786466911 20000000000 7692307692.31 3.10631109547e-06 1.55315554773e-06 1.55315554773e-06 72
#
#
#
# ep_72
#------
#
geomTransf Corotational 73 0 -1 0
element elasticBeamColumn 73 73 70 0.00361034969343 20000000000 7692307692.31 2.07452498559e-06 1.0372624928e-06 1.0372624928e-06 73
#
#
#
# ep_73
#------
#
geomTransf Corotational 74 0 -1 0
element elasticBeamColumn 74 74 67 0.0030777869068 20000000000 7692307692.31 1.50763852736e-06 7.5381926368e-07 7.5381926368e-07 74
#
#
#
# ep_74
#------
#
geomTransf Corotational 75 0 -1 0
element elasticBeamColumn 75 75 74 0.00303857983048 20000000000 7692307692.31 1.46947239892e-06 7.34736199459e-07 7.34736199459e-07 75
#
#
#
# ep_75
#------
#
geomTransf Corotational 76 0 -1 0
element elasticBeamColumn 76 76 73 0.00356787536076 20000000000 7692307692.31 2.02600018423e-06 1.01300009211e-06 1.01300009211e-06 76
#
#
#
# ep_76
#------
#
geomTransf Corotational 77 0 -1 0
element elasticBeamColumn 77 77 15 0.00432411954433 20000000000 7692307692.31 2.975880691e-06 1.4879403455e-06 1.4879403455e-06 77
#
#
#
# ep_77
#------
#
geomTransf Corotational 78 0 -1 0
element elasticBeamColumn 78 78 27 0.00201090204164 20000000000 7692307692.31 6.43579143915e-07 3.21789571958e-07 3.21789571958e-07 78
#
#
#
# ep_78
#------
#
geomTransf Corotational 79 0 -1 0
element elasticBeamColumn 79 79 75 0.00299962408157 20000000000 7692307692.31 1.43203553466e-06 7.16017767332e-07 7.16017767332e-07 79
#
#
#
# ep_79
#------
#
geomTransf Corotational 80 0 -1 0
element elasticBeamColumn 80 80 30 0.00220618344098 20000000000 7692307692.31 7.74646160715e-07 3.87323080358e-07 3.87323080358e-07 80
#
#
#
# ep_8
#-----
#
geomTransf Corotational 9 0 -1 0
element elasticBeamColumn 9 9 7 0.00234139758879 20000000000 7692307692.31 8.72510104476e-07 4.36255052238e-07 4.36255052238e-07 9
#
#
#
# ep_80
#------
#
geomTransf Corotational 81 0 -1 0
element elasticBeamColumn 81 81 80 0.00217300822256 20000000000 7692307692.31 7.51524028732e-07 3.75762014366e-07 3.75762014366e-07 81
#
#
#
# ep_81
#------
#
geomTransf Corotational 82 0 -1 0
element elasticBeamColumn 82 82 93 0.00319691610022 20000000000 7692307692.31 1.62660689637e-06 8.13303448186e-07 8.13303448186e-07 82
#
#
#
# ep_82
#------
#
geomTransf Corotational 83 0 -1 0
element elasticBeamColumn 83 83 44 0.00173494454294 20000000000 7692307692.31 4.79061561921e-07 2.3953078096e-07 2.3953078096e-07 83
#
#
#
# ep_83
#------
#
geomTransf Corotational 84 0 -1 0
element elasticBeamColumn 84 85 32 0.00194781886115 20000000000 7692307692.31 6.03833586051e-07 3.01916793026e-07 3.01916793026e-07 84
#
#
#
# ep_84
#------
#
geomTransf Corotational 85 0 -1 0
element elasticBeamColumn 85 86 36 0.00331830724035 20000000000 7692307692.31 1.75248101131e-06 8.76240505656e-07 8.76240505656e-07 85
#
#
#
# ep_85
#------
#
geomTransf Corotational 86 0 -1 0
element elasticBeamColumn 86 87 86 0.00327759219956 20000000000 7692307692.31 1.70973958294e-06 8.54869791471e-07 8.54869791471e-07 86
#
#
#
# ep_86
#------
#
geomTransf Corotational 87 0 -1 0
element elasticBeamColumn 87 88 89 0.00210741176795 20000000000 7692307692.31 7.06836444031e-07 3.53418222015e-07 3.53418222015e-07 87
#
#
#
# ep_87
#------
#
geomTransf Corotational 88 0 -1 0
element elasticBeamColumn 88 89 81 0.00214008433155 20000000000 7692307692.31 7.28923423748e-07 3.64461711874e-07 3.64461711874e-07 88
#
#
#
# ep_88
#------
#
geomTransf Corotational 89 0 -1 0
element elasticBeamColumn 89 90 49 0.00273397100679 20000000000 7692307692.31 1.18961913433e-06 5.94809567164e-07 5.94809567164e-07 89
#
#
#
# ep_89
#------
#
geomTransf Corotational 90 0 -1 0
element elasticBeamColumn 90 91 29 0.00167638525588 20000000000 7692307692.31 4.47267968196e-07 2.23633984098e-07 2.23633984098e-07 90
#
#
#
# ep_9
#-----
#
geomTransf Corotational 10 0 -1 0
element elasticBeamColumn 10 10 76 0.00352565235549 20000000000 7692307692.31 1.97833167797e-06 9.89165838987e-07 9.89165838987e-07 10
#
#
#
# ep_90
#------
#
geomTransf Corotational 91 0 -1 0
element elasticBeamColumn 91 92 79 0.00296091966008 20000000000 7692307692.31 1.39531858522e-06 6.97659292608e-07 6.97659292608e-07 91
#
#
#
# ep_91
#------
#
geomTransf Corotational 92 0 -1 0
element elasticBeamColumn 92 93 87 0.00323712848619 20000000000 7692307692.31 1.66778478173e-06 8.33892390863e-07 8.33892390863e-07 92
#
#
#
# ep_92
#------
#
geomTransf Corotational 93 0 -1 0
element elasticBeamColumn 93 94 88 0.00207499053177 20000000000 7692307692.31 6.85255248164e-07 3.42627624082e-07 3.42627624082e-07 93
#
#
#
# ep_93
#------
#
geomTransf Corotational 94 0 -1 0
element elasticBeamColumn 94 95 33 0.00266033207499 20000000000 7692307692.31 1.12639790221e-06 5.63198951105e-07 5.63198951105e-07 94
#
#
#
# ep_94
#------
#
geomTransf Corotational 95 0 -1 0
element elasticBeamColumn 95 96 85 0.00191665426203 20000000000 7692307692.31 5.84665799361e-07 2.9233289968e-07 2.9233289968e-07 95
#
#
#
# ep_95
#------
#
geomTransf Corotational 96 0 -1 0
element elasticBeamColumn 96 97 61 0.00395919214169 20000000000 7692307692.31 2.49478594828e-06 1.24739297414e-06 1.24739297414e-06 96
#
#
#
# ep_96
#------
#
geomTransf Corotational 97 0 -1 0
element elasticBeamColumn 97 98 96 0.00188574099032 20000000000 7692307692.31 5.65958014719e-07 2.82979007359e-07 2.82979007359e-07 97
#
#
#
# ep_97
#------
#
geomTransf Corotational 98 0 -1 0
element elasticBeamColumn 98 99 98 0.00185507904602 20000000000 7692307692.31 5.47702812942e-07 2.73851406471e-07 2.73851406471e-07 98
#
#
#
# ep_98
#------
#
geomTransf Corotational 99 0 -1 0
element elasticBeamColumn 99 100 97 0.00391470718971 20000000000 7692307692.31 2.43903874101e-06 1.21951937051e-06 1.21951937051e-06 99
#
#
#
# ep_99
#------
#
geomTransf Corotational 100 0 -1 0
element elasticBeamColumn 100 101 100 0.00387047356515 20000000000 7692307692.31 2.3842310685e-06 1.19211553425e-06 1.19211553425e-06 100
#
#
#
#------------------------------------------------------------------
# Steps
#------------------------------------------------------------------
#
# step_load
#----------
#
timeSeries Constant 1 -factor 1.0
pattern Plain 1 1 -fact 1 {
#
# load_weights
#-------------
#
load 62 0.0 0.0 -100.0 0.0 0.0 0.0
load 26 0.0 0.0 -100.0 0.0 0.0 0.0
load 77 0.0 0.0 -100.0 0.0 0.0 0.0
load 48 0.0 0.0 -100.0 0.0 0.0 0.0
load 101 0.0 0.0 -100.0 0.0 0.0 0.0
load 70 0.0 0.0 -100.0 0.0 0.0 0.0
load 18 0.0 0.0 -100.0 0.0 0.0 0.0
load 93 0.0 0.0 -100.0 0.0 0.0 0.0
load 75 0.0 0.0 -100.0 0.0 0.0 0.0
load 43 0.0 0.0 -100.0 0.0 0.0 0.0
load 95 0.0 0.0 -100.0 0.0 0.0 0.0
load 64 0.0 0.0 -100.0 0.0 0.0 0.0
load 11 0.0 0.0 -100.0 0.0 0.0 0.0
load 89 0.0 0.0 -100.0 0.0 0.0 0.0
load 32 0.0 0.0 -100.0 0.0 0.0 0.0
load 1 0.0 0.0 -100.0 0.0 0.0 0.0
load 91 0.0 0.0 -100.0 0.0 0.0 0.0
load 59 0.0 0.0 -100.0 0.0 0.0 0.0
load 51 0.0 0.0 -100.0 0.0 0.0 0.0
#
#
#
sp 14 5 0.523598775598
#
#
# Output
#-------
#
}
#
# Node recorders
#---------------
#
recorder Node -file C:/Temp/beam_simple/step_load_u.out -time -nodeRange 1 101 -dof 1 2 3 disp
#
recorder Node -file C:/Temp/beam_simple/step_load_ur.out -time -nodeRange 1 101 -dof 4 5 6 disp
#
#
# Element recorders
#------------------
#
recorder Element -file C:/Temp/beam_simple/step_load_sf_beam.out -time -ele 1 2 3 4 5 6 7 8 9 10 11 12 13 14 15 16 17 18 19 20 21 22 23 24 25 26 27 28 29 30 31 32 33 34 35 36 37 38 39 40 41 42 43 44 45 46 47 48 49 50 51 52 53 54 55 56 57 58 59 60 61 62 63 64 65 66 67 68 69 70 71 72 73 74 75 76 77 78 79 80 81 82 83 84 85 86 87 88 89 90 91 92 93 94 95 96 97 98 99 100  localForce
#
# Solver
#-------
#
#
constraints Transformation
numberer RCM
system ProfileSPD
test NormUnbalance 0.01 100 5
algorithm NewtonLineSearch
integrator LoadControl 0.01
analysis Static
analyze 100
