#------------------------------------------------------------------
# Heading
#------------------------------------------------------------------
#
wipe
model basic -ndm 3 -ndf 6
#
#
#------------------------------------------------------------------
# Nodes
#------------------------------------------------------------------
#
node 1 4.000 0.000 1.900
node 2 4.000 0.000 2.000
node 3 4.000 0.000 1.800
node 4 4.000 0.000 1.700
node 5 4.000 0.000 1.600
node 6 4.000 0.000 1.500
node 7 4.000 0.000 1.400
node 8 4.000 0.000 1.300
node 9 4.000 0.000 1.200
node 10 4.000 0.000 1.100
node 11 4.000 0.000 1.000
node 12 4.000 0.000 0.900
node 13 4.000 0.000 0.800
node 14 4.000 0.000 0.700
node 15 4.000 0.000 0.600
node 16 4.000 0.000 0.500
node 17 4.000 0.000 0.400
node 18 4.000 0.000 0.300
node 19 4.000 0.000 0.200
node 20 4.000 0.000 0.100
# ... 61 like lines cut
#
#
#
#------------------------------------------------------------------
# Boundary conditions
#------------------------------------------------------------------
#
# disp_pins
#----------
#
fix 21 1 1 1 0 0 0
fix 81 1 1 1 0 0 0
#
# disp_rollers
#-------------
#
fix 2 0 1 0 0 0 0
fix 61 0 1 0 0 0 0
#
#
#
#------------------------------------------------------------------
# Materials
#------------------------------------------------------------------
#
# mat_steel
#----------
#
uniaxialMaterial Steel01 1 355000000.0 210000000000.0 0.0
#
#
#
#------------------------------------------------------------------
# Elements
#------------------------------------------------------------------
#
# ep_beam
#--------
#
geomTransf Corotational 1 0 1 0
element elasticBeamColumn 1 1 2 0.00306305283725 210000000000.0 80769230769.2 2.68344372494e-08 1.45686450572e-05 1.45686450572e-05 1
#
geomTransf Corotational 2 0 1 0
element elasticBeamColumn 2 3 1 0.00306305283725 210000000000.0 80769230769.2 2.68344372494e-08 1.45686450572e-05 1.45686450572e-05 2
#
geomTransf Corotational 3 0 1 0
element elasticBeamColumn 3 4 3 0.00306305283725 210000000000.0 80769230769.2 2.68344372494e-08 1.45686450572e-05 1.45686450572e-05 3
#
geomTransf Corotational 4 0 1 0
element elasticBeamColumn 4 5 4 0.00306305283725 210000000000.0 80769230769.2 2.68344372494e-08 1.45686450572e-05 1.45686450572e-05 4
#
geomTransf Corotational 5 0 1 0
element elasticBeamColumn 5 6 5 0.00306305283725 210000000000.0 80769230769.2 2.68344372494e-08 1.45686450572e-05 1.45686450572e-05 5
#
geomTransf Corotational 6 0 1 0
element elasticBeamColumn 6 7 6 0.00306305283725 210000000000.0 80769230769.2 2.68344372494e-08 1.45686450572e-05 1.45686450572e-05 6
#
geomTransf Corotational 7 0 1 0
element elasticBeamColumn 7 8 7 0.00306305283725 210000000000.0 80769230769.2 2.68344372494e-08 1.45686450572e-05 1.45686450572e-05 7
#
geomTransf Corotational 8 0 1 0
element elasticBeamColumn 8 9 8 0.00306305283725 210000000000.0 80769230769.2 2.68344372494e-08 1.45686450572e-05 1.45686450572e-05 8
#
geomTransf Corotational 9 0 1 0
element elasticBeamColumn 9 10 9 0.00306305283725 210000000000.0 80769230769.2 2.68344372494e-08 1.45686450572e-05 1.45686450572e-05 9
#
geomTransf Corotational 10 0 1 0
element elasticBeamColumn 10 11 10 0.00306305283725 210000000000.0 80769230769.2 2.68344372494e-08 1.45686450572e-05 1.45686450572e-05 10
#
geomTransf Corotational 11 0 1 0
element elasticBeamColumn 11 12 11 0.00306305283725 210000000000.0 80769230769.2 2.68344372494e-08 1.45686450572e-05 1.45686450572e-05 11
#
geomTransf Corotational 12 0 1 0
element elasticBeamColumn 12 13 12 0.00306305283725 210000000000.0 80769230769.2 2.68344372494e-08 1.45686450572e-05 1.45686450572e-05 12
#
geomTransf Corotational 13 0 1 0
element elasticBeamColumn 13 14 13 0.00306305283725 210000000000.0 80769230769.2 2.68344372494e-08 1.45686450572e-05 1.45686450572e-05 13
#
geomTransf Corotational 14 0 1 0
element elasticBeamColumn 14 15 14 0.00306305283725 210000000000.0 80769230769.2 2.68344372494e-08 1.45686450572e-05 1.45686450572e-05 14
#
geomTransf Corotational 15 0 1 0
element elasticBeamColumn 15 16 15 0.00306305283725 210000000000.0 80769230769.2 2.68344372494e-08 1.45686450572e-05 1.45686450572e-05 15
#
geomTransf Corotational 16 0 1 0
element elasticBeamColumn 16 17 16 0.00306305283725 210000000000.0 80769230769.2 2.68344372494e-08 1.45686450572e-05 1.45686450572e-05 16
#
geomTransf Corotational 17 0 1 0
element elasticBeamColumn 17 18 17 0.00306305283725 210000000000.0 80769230769.2 2.68344372494e-08 1.45686450572e-05 1.45686450572e-05 17
#
geomTransf Corotational 18 0 1 0
element elasticBeamColumn 18 19 18 0.00306305283725 210000000000.0 80769230769.2 2.68344372494e-08 1.45686450572e-05 1.45686450572e-05 18
#
geomTransf Corotational 19 0 1 0
element elasticBeamColumn 19 20 19 0.00306305283725 210000000000.0 80769230769.2 2.68344372494e-08 1.45686450572e-05 1.45686450572e-05 19
#
geomTransf Corotational 20 0 1 0
element elasticBeamColumn 20 21 20 0.00306305283725 210000000000.0 80769230769.2 2.68344372494e-08 1.45686450572e-05 1.45686450572e-05 20
# ... 181 like lines cut
#
#
#------------------------------------------------------------------
# Steps
#------------------------------------------------------------------
#
# step_loads
#-----------
#
timeSeries Constant 1 -factor 1.0
pattern Plain 1 1 -fact 1 {
#
# load_h
#-------
#
load 61 4000.0 0.0 0.0 0.0 0.0 0.0
#
# load_v
#-------
#
load 41 0.0 0.0 -6000.0 0.0 0.0 0.0
#
#
#
# Output
#-------
#
}
#
# Node recorders
#---------------
#
recorder Node -file C:/Temp/beam_frame/step_loads_u.out -time -nodeRange 1 81 -dof 1 2 3 disp
#
recorder Node -file C:/Temp/beam_frame/step_loads_rf.out -time -nodeRange 1 81 -dof 1 2 3 reaction
#
#
# Element recorders
#------------------
#
recorder Element -file C:/Temp/beam_frame/step_loads_sf_beam.out -time -ele 1 2 3 4 5 6 7 8 9 10 11 12 13 14 15 16 17 18 19 20 21 22 23 24 25 26 27 28 29 30 31 32 33 34 35 36 37 38 39 40 41 42 43 44 45 46 47 48 49 50 51 52 53 54 55 56 57 58 59 60 61 62 63 64 65 66 67 68 69 70 71 72 73 74 75 76 77 78 79 80  localForce
#
# Solver
#-------
#
#
constraints Transformation
numberer RCM
system ProfileSPD
test NormUnbalance 0.01 50 5
algorithm NewtonLineSearch
integrator LoadControl 0.01
analysis Static
analyze 100
